EV_data/13Bus/IEEE13Nodeckt_VLN_elem.Txt

NODE-GROUND VOLTAGES BY CIRCUIT ELEMENT

Power Delivery Elements

Bus       (node ref)  Phase    Magnitude, kV (pu)    Angle

ELEMENT = "Vsource.SOURCE"
SOURCEBUS  (  1)    1           66.404 (       1) /_   30.0
SOURCEBUS  (  2)    2           66.404 (       1) /_  -90.0
SOURCEBUS  (  3)    3           66.405 (       1) /_  150.0
------------
SOURCEBUS  (  0)    0                0 (       0) /_    0.0
SOURCEBUS  (  0)    0                0 (       0) /_    0.0
SOURCEBUS  (  0)    0                0 (       0) /_    0.0

ELEMENT = "Transformer.SUB"
SOURCEBUS  (  1)    1           66.404 (       1) /_   30.0
SOURCEBUS  (  2)    2           66.404 (       1) /_  -90.0
SOURCEBUS  (  3)    3           66.405 (       1) /_  150.0
SOURCEBUS  (  0)    0                0 (       0) /_    0.0
------------
650        (  4)    1           2.4021 (       1) /_   30.0
650        (  5)    2           2.4021 (       1) /_  -90.0
650        (  6)    3           2.4022 (       1) /_  150.0
650        (  0)    0                0 (       0) /_    0.0

ELEMENT = "Transformer.REG1"
650        (  4)    1           2.4021 (       1) /_   30.0
650        (  0)    0                0 (       0) /_    0.0
------------
RG60       (  7)    1           2.4021 (       1) /_   30.0
RG60       (  0)    0                0 (       0) /_    0.0

ELEMENT = "Transformer.REG2"
650        (  5)    2           2.4021 (       1) /_  -90.0
650        (  0)    0                0 (       0) /_    0.0
------------
RG60       (  8)    2           2.4021 (       1) /_  -90.0
RG60       (  0)    0                0 (       0) /_    0.0

ELEMENT = "Transformer.REG3"
650        (  6)    3           2.4022 (       1) /_  150.0
650        (  0)    0                0 (       0) /_    0.0
------------
RG60       (  9)    3           2.4022 (       1) /_  150.0
RG60       (  0)    0                0 (       0) /_    0.0

ELEMENT = "Transformer.XFM1"
633        ( 10)    1           2.4189 (   1.007) /_   30.0
633        ( 11)    2           2.4158 (   1.006) /_  -90.2
633        ( 12)    3           2.4397 (   1.016) /_  149.7
633        (  0)    0                0 (       0) /_    0.0
------------
634        ( 13)    1          0.27911 (   1.007) /_   30.0
634        ( 14)    2          0.27875 (   1.006) /_  -90.2
634        ( 15)    3           0.2815 (   1.016) /_  149.7
634        (  0)    0                0 (       0) /_    0.0

ELEMENT = "Capacitor.CAP1"
675        ( 24)    1            2.439 (   1.016) /_   29.9
675        ( 25)    2           2.4324 (   1.013) /_  -90.4
675        ( 26)    3           2.4809 (   1.033) /_  149.3
------------
675        (  0)    0                0 (       0) /_    0.0
675        (  0)    0                0 (       0) /_    0.0
675        (  0)    0                0 (       0) /_    0.0

ELEMENT = "Capacitor.CAP2"
611        ( 27)    3           2.4838 (   1.034) /_  149.2
------------
611        (  0)    0                0 (       0) /_    0.0

ELEMENT = "Line.650632"
RG60       (  7)    1           2.4021 (       1) /_   30.0
RG60       (  8)    2           2.4021 (       1) /_  -90.0
RG60       (  9)    3           2.4022 (       1) /_  150.0
------------
632        ( 32)    1           2.4189 (   1.007) /_   30.0
632        ( 33)    2           2.4158 (   1.006) /_  -90.2
632        ( 34)    3           2.4397 (   1.016) /_  149.7

ELEMENT = "Line.632670"
632        ( 32)    1           2.4189 (   1.007) /_   30.0
632        ( 33)    2           2.4158 (   1.006) /_  -90.2
632        ( 34)    3           2.4397 (   1.016) /_  149.7
------------
670        ( 29)    1           2.4245 (   1.009) /_   30.0
670        ( 30)    2           2.4204 (   1.008) /_  -90.2
670        ( 31)    3           2.4522 (   1.021) /_  149.6

ELEMENT = "Line.670671"
670        ( 29)    1           2.4245 (   1.009) /_   30.0
670        ( 30)    2           2.4204 (   1.008) /_  -90.2
670        ( 31)    3           2.4522 (   1.021) /_  149.6
------------
671        ( 16)    1           2.4357 (   1.014) /_   30.0
671        ( 17)    2           2.4295 (   1.012) /_  -90.3
671        ( 18)    3           2.4772 (   1.031) /_  149.4

ELEMENT = "Line.671680"
671        ( 16)    1           2.4357 (   1.014) /_   30.0
671        ( 17)    2           2.4295 (   1.012) /_  -90.3
671        ( 18)    3           2.4772 (   1.031) /_  149.4
------------
680        ( 35)    1           2.4357 (   1.014) /_   30.0
680        ( 36)    2           2.4295 (   1.012) /_  -90.3
680        ( 37)    3           2.4772 (   1.031) /_  149.4

ELEMENT = "Line.632633"
632        ( 32)    1           2.4189 (   1.007) /_   30.0
632        ( 33)    2           2.4158 (   1.006) /_  -90.2
632        ( 34)    3           2.4397 (   1.016) /_  149.7
------------
633        ( 10)    1           2.4189 (   1.007) /_   30.0
633        ( 11)    2           2.4158 (   1.006) /_  -90.2
633        ( 12)    3           2.4397 (   1.016) /_  149.7

ELEMENT = "Line.632645"
632        ( 34)    3           2.4397 (   1.016) /_  149.7
632        ( 33)    2           2.4158 (   1.006) /_  -90.2
------------
645        ( 38)    3           2.4397 (   1.016) /_  149.7
645        ( 19)    2           2.4158 (   1.006) /_  -90.2

ELEMENT = "Line.645646"
645        ( 38)    3           2.4397 (   1.016) /_  149.7
645        ( 19)    2           2.4158 (   1.006) /_  -90.2
------------
646        ( 21)    3           2.4397 (   1.016) /_  149.7
646        ( 20)    2           2.4158 (   1.006) /_  -90.2

ELEMENT = "Line.692675"
692        ( 23)    1           2.4357 (   1.014) /_   30.0
692        ( 39)    2           2.4295 (   1.012) /_  -90.3
692        ( 22)    3           2.4772 (   1.031) /_  149.4
------------
675        ( 24)    1            2.439 (   1.016) /_   29.9
675        ( 25)    2           2.4324 (   1.013) /_  -90.4
675        ( 26)    3           2.4809 (   1.033) /_  149.3

ELEMENT = "Line.671684"
671        ( 16)    1           2.4357 (   1.014) /_   30.0
671        ( 18)    3           2.4772 (   1.031) /_  149.4
------------
684        ( 40)    1           2.4356 (   1.014) /_   30.0
684        ( 41)    3           2.4805 (   1.033) /_  149.3

ELEMENT = "Line.684611"
684        ( 41)    3           2.4805 (   1.033) /_  149.3
------------
611        ( 27)    3           2.4838 (   1.034) /_  149.2

ELEMENT = "Line.684652"
684        ( 40)    1           2.4356 (   1.014) /_   30.0
------------
652        ( 28)    1           2.4356 (   1.014) /_   30.0

ELEMENT = "Line.671692"
671        ( 16)    1           2.4357 (   1.014) /_   30.0
671        ( 17)    2           2.4295 (   1.012) /_  -90.3
671        ( 18)    3           2.4772 (   1.031) /_  149.4
------------
692        ( 23)    1           2.4357 (   1.014) /_   30.0
692        ( 39)    2           2.4295 (   1.012) /_  -90.3
692        ( 22)    3           2.4772 (   1.031) /_  149.4

= = = = = = = = = = = = = = = = = = =  = = = = = = = = = = =  = =

Power Conversion Elements

Bus       (node ref)  Phase    Magnitude, kV (pu)    Angle

ELEMENT = "Load.671"
671        ( 16)    1           2.4357 (   1.014) /_   30.0
671        ( 17)    2           2.4295 (   1.012) /_  -90.3
671        ( 18)    3           2.4772 (   1.031) /_  149.4

ELEMENT = "Load.634A"
634        ( 13)    1          0.27911 (   1.007) /_   30.0
634        (  0)    0                0 (       0) /_    0.0

ELEMENT = "Load.634B"
634        ( 14)    2          0.27875 (   1.006) /_  -90.2
634        (  0)    0                0 (       0) /_    0.0

ELEMENT = "Load.634C"
634        ( 15)    3           0.2815 (   1.016) /_  149.7
634        (  0)    0                0 (       0) /_    0.0

ELEMENT = "Load.645"
645        ( 19)    2           2.4158 (   1.006) /_  -90.2
645        (  0)    0                0 (       0) /_    0.0

ELEMENT = "Load.646"
646        ( 20)    2           2.4158 (   1.006) /_  -90.2
646        ( 21)    3           2.4397 (   1.016) /_  149.7

ELEMENT = "Load.692"
692        ( 22)    3           2.4772 (   1.031) /_  149.4
692        ( 23)    1           2.4357 (   1.014) /_   30.0

ELEMENT = "Load.675A"
675        ( 24)    1            2.439 (   1.016) /_   29.9
675        (  0)    0                0 (       0) /_    0.0

ELEMENT = "Load.675B"
675        ( 25)    2           2.4324 (   1.013) /_  -90.4
675        (  0)    0                0 (       0) /_    0.0

ELEMENT = "Load.675C"
675        ( 26)    3           2.4809 (   1.033) /_  149.3
675        (  0)    0                0 (       0) /_    0.0

ELEMENT = "Load.611"
611        ( 27)    3           2.4838 (   1.034) /_  149.2
611        (  0)    0                0 (       0) /_    0.0

ELEMENT = "Load.652"
652        ( 28)    1           2.4356 (   1.014) /_   30.0
652        (  0)    0                0 (       0) /_    0.0

ELEMENT = "Load.670A"
670        ( 29)    1           2.4245 (   1.009) /_   30.0
670        (  0)    0                0 (       0) /_    0.0

ELEMENT = "Load.670B"
670        ( 30)    2           2.4204 (   1.008) /_  -90.2
670        (  0)    0                0 (       0) /_    0.0

ELEMENT = "Load.670C"
670        ( 31)    3           2.4522 (   1.021) /_  149.6
670        (  0)    0                0 (       0) /_    0.0

